sectionalized/peak_load/40pc/TNB_DUMA_EXP_VOLTAGES.CSV
Bus, BasekV, Node1, Magnitude1, Angle1, pu1, Node2, Magnitude2, Angle2, pu2, Node3, Magnitude3, Angle3, pu3
"PPU_DUMA_33KV", 33, 1,      19028,    1.6,   0.99871, 2,      19028, -118.4,   0.99871, 3,      19028,  121.6,   0.99871
"PPU_DUMA_11KV_A", 11, 1,     6284.5,  -25.5,   0.98955, 2,     6284.5, -145.5,   0.98955, 3,     6284.5,   94.5,   0.98955
"PPU_DUMA_11KV_B", 11, 1,    6249.26,  -24.2,     0.984, 2,    6249.26, -144.2,     0.984, 3,    6249.26,   95.8,     0.984
"RPPLNGI2", 11, 1,    6279.64,  -23.7,   0.98879, 2,    6279.64, -143.7,   0.98879, 3,    6279.64,   96.3,   0.98879
"PDTJLNMASJID", 11, 1,     6302.6,  -23.3,    0.9924, 2,     6302.6, -143.3,    0.9924, 3,     6302.6,   96.7,    0.9924
"BELLA", 11, 1,    6317.98,  -23.1,   0.99482, 2,    6317.98, -143.1,   0.99482, 3,    6317.98,   96.9,   0.99482
"PSTPDGN", 11, 1,     6325.7,  -23.0,   0.99604, 2,     6325.7, -143.0,   0.99604, 3,     6325.7,   97.0,   0.99604
"ATRIA_1", 11, 1,    6309.19,  -23.5,   0.99344, 2,    6309.19, -143.5,   0.99344, 3,    6309.19,   96.5,   0.99344
"HAWKER", 11, 1,    6318.53,  -22.9,   0.99491, 2,    6318.53, -142.9,   0.99491, 3,    6318.53,   97.1,   0.99491
"DUMA7", 11, 1,    6264.12,  -24.0,   0.98634, 2,    6264.12, -144.0,   0.98634, 3,    6264.12,   96.0,   0.98634
"HAUS", 11, 1,    6302.08,  -23.8,   0.99232, 2,    6302.08, -143.8,   0.99232, 3,    6302.08,   96.2,   0.99232
"DUMA6", 11, 1,    6408.35,  -23.3,    1.0091, 2,    6408.35, -143.3,    1.0091, 3,    6408.35,   96.7,    1.0091
"DUMA13", 11, 1,    6509.15,  -22.8,    1.0249, 2,    6509.15, -142.8,    1.0249, 3,    6509.15,   97.2,    1.0249
"SSU_DUMA5_IM2", 11, 1,    6519.78,  -22.7,    1.0266, 2,    6519.78, -142.7,    1.0266, 3,    6519.78,   97.3,    1.0266
"PDTLITRAK", 11, 1,    6362.25,  -22.9,    1.0018, 2,    6362.25, -142.9,    1.0018, 3,    6362.25,   97.1,    1.0018
"DUMA12", 11, 1,    6407.87,  -22.3,     1.009, 2,    6407.87, -142.3,     1.009, 3,    6407.87,   97.7,     1.009
"TMNGH4", 11, 1,    6454.12,  -22.1,    1.0163, 2,    6454.12, -142.1,    1.0163, 3,    6454.12,   97.9,    1.0163
"SSU_TMEGAH3_IR1", 11, 1,    6472.43,  -22.0,    1.0191, 2,    6472.43, -142.0,    1.0191, 3,    6472.43,   98.0,    1.0191
"TMNGH2", 11, 1,    6479.47,  -22.0,    1.0203, 2,    6479.47, -142.0,    1.0203, 3,    6479.47,   98.0,    1.0203
"SSU_UPTWRES_IM2", 11, 1,    6261.18,  -23.9,   0.98588, 2,    6261.18, -143.9,   0.98588, 3,    6261.18,   96.1,   0.98588
"MAYBANK", 11, 1,    6287.13,  -23.7,   0.98997, 2,    6287.13, -143.7,   0.98997, 3,    6287.13,   96.3,   0.98997
"DUMA8", 11, 1,    6292.25,  -23.7,   0.99077, 2,    6292.25, -143.7,   0.99077, 3,    6292.25,   96.3,   0.99077
"DUMA9", 11, 1,    6314.39,  -23.3,   0.99426, 2,    6314.39, -143.3,   0.99426, 3,    6314.39,   96.7,   0.99426
"DUMA1", 11, 1,     6341.1,  -22.9,   0.99846, 2,     6341.1, -142.9,   0.99846, 3,     6341.1,   97.1,   0.99846
"ELITE", 11, 1,    6350.67,  -22.8,   0.99997, 2,    6350.67, -142.8,   0.99997, 3,    6350.67,   97.2,   0.99997
"PAMDRA", 11, 1,    6289.49,  -25.5,   0.99034, 2,    6289.49, -145.5,   0.99034, 3,    6289.49,   94.5,   0.99034
"DUMA4", 11, 1,    6305.99,  -25.4,   0.99294, 2,    6305.99, -145.4,   0.99294, 3,    6305.99,   94.6,   0.99294
"PLSDRA", 11, 1,    6340.44,  -25.2,   0.99836, 2,    6340.44, -145.2,   0.99836, 3,    6340.44,   94.8,   0.99836
"PRMTE", 11, 1,    6291.61,  -25.1,   0.99067, 2,    6291.61, -145.1,   0.99067, 3,    6291.61,   94.9,   0.99067
"PRMTA", 11, 1,    6293.93,  -25.0,   0.99104, 2,    6293.93, -145.0,   0.99104, 3,    6293.93,   95.0,   0.99104
"PMONTB", 11, 1,    6298.49,  -25.0,   0.99176, 2,    6298.49, -145.0,   0.99176, 3,    6298.49,   95.0,   0.99176
"PLNGI_B", 11, 1,    6312.07,  -25.3,   0.99389, 2,    6312.07, -145.3,   0.99389, 3,    6312.07,   94.7,   0.99389
"PLNGI_D", 11, 1,    6328.27,  -25.1,   0.99644, 2,    6328.27, -145.1,   0.99644, 3,    6328.27,   94.9,   0.99644
"SPRK9", 11, 1,    6341.23,  -24.5,   0.99849, 2,    6341.23, -144.5,   0.99849, 3,    6341.23,   95.5,   0.99849
"BOMBA", 11, 1,    6345.41,  -24.5,   0.99914, 2,    6345.41, -144.5,   0.99914, 3,    6345.41,   95.5,   0.99914
"SPRK8", 11, 1,    6355.84,  -24.4,    1.0008, 2,    6355.84, -144.4,    1.0008, 3,    6355.84,   95.6,    1.0008
"SSU_DSARCNTR_IR1", 11, 1,    6299.56,  -25.4,   0.99192, 2,    6299.56, -145.4,   0.99192, 3,    6299.56,   94.6,   0.99192
"DUMA10", 11, 1,    6343.43,  -24.9,   0.99883, 2,    6343.43, -144.9,   0.99883, 3,    6343.43,   95.1,   0.99883
"BALAIPOLIS", 11, 1,    6344.05,  -24.9,   0.99893, 2,    6344.05, -144.9,   0.99893, 3,    6344.05,   95.1,   0.99893
"SSU_UPTWRES_IR1", 11, 1,    6343.37,  -25.1,   0.99882, 2,    6343.37, -145.1,   0.99882, 3,    6343.37,   94.9,   0.99882
"PPU_DUMA_VCB1", 33, 1,          0,    0.0,         0, 2,          0,    0.0,         0, 3,          0,    0.0,         0
